432
Lattice="34.619948006893374 0.0 0.0 17.309974003446687 29.9817544516661 0.0 0.0 0.0 24.711178196587348" Properties=species:S:1:pos:R:3:tags:I:1 pbc="T T F"
Au       1.44249783       0.83282651      10.00000000        3
Au       4.32749350       0.83282651      10.00000000        3
Au       2.88499567       3.33130605      10.00000000        3
Au       5.76999133       3.33130605      10.00000000        3
Au      34.61994801       1.66565303      12.35558910        2
Au       2.88499567       1.66565303      12.35558910        2
Au      36.06244584       4.16413256      12.35558910        2
Au       4.32749350       4.16413256      12.35558910        2
Au       0.00000000       0.00000000      14.71117820        1
Au       2.88499567       0.00000000      14.71117820        1
Au       1.44249783       2.49847954      14.71117820        1
Au       4.32749350       2.49847954      14.71117820        1
Au       4.32749350       5.82978559      10.00000000        3
Au       7.21248917       5.82978559      10.00000000        3
Au       5.76999133       8.32826513      10.00000000        3
Au       8.65498700       8.32826513      10.00000000        3
Au      37.50494367       6.66261210      12.35558910        2
Au       5.76999133       6.66261210      12.35558910        2
Au      38.94744151       9.16109164      12.35558910        2
Au       7.21248917       9.16109164      12.35558910        2
Au       2.88499567       4.99695908      14.71117820        1
Au       5.76999133       4.99695908      14.71117820        1
Au       4.32749350       7.49543861      14.71117820        1
Au       7.21248917       7.49543861      14.71117820        1
Au       7.21248917      10.82674466      10.00000000        3
Au      10.09748484      10.82674466      10.00000000        3
Au       8.65498700      13.32522420      10.00000000        3
Au      11.53998267      13.32522420      10.00000000        3
Au      40.38993934      11.65957118      12.35558910        2
Au       8.65498700      11.65957118      12.35558910        2
Au      41.83243717      14.15805071      12.35558910        2
Au      10.09748484      14.15805071      12.35558910        2
Au       5.76999133       9.99391815      14.71117820        1
Au       8.65498700       9.99391815      14.71117820        1
Au       7.21248917      12.49239769      14.71117820        1
Au      10.09748484      12.49239769      14.71117820        1
Au      10.09748484      15.82370374      10.00000000        3
Au      12.98248050      15.82370374      10.00000000        3
Au      11.53998267      18.32218328      10.00000000        3
Au      14.42497834      18.32218328      10.00000000        3
Au      43.27493501      16.65653025      12.35558910        2
Au      11.53998267      16.65653025      12.35558910        2
Au      44.71743284      19.15500979      12.35558910        2
Au      12.98248050      19.15500979      12.35558910        2
Au       8.65498700      14.99087723      14.71117820        1
Au      11.53998267      14.99087723      14.71117820        1
Au      10.09748484      17.48935676      14.71117820        1
Au      12.98248050      17.48935676      14.71117820        1
Au      12.98248050      20.82066281      10.00000000        3
Au      15.86747617      20.82066281      10.00000000        3
Au      14.42497834      23.31914235      10.00000000        3
Au      17.30997400      23.31914235      10.00000000        3
Au      46.15993068      21.65348933      12.35558910        2
Au      14.42497834      21.65348933      12.35558910        2
Au      47.60242851      24.15196886      12.35558910        2
Au      15.86747617      24.15196886      12.35558910        2
Au      11.53998267      19.98783630      14.71117820        1
Au      14.42497834      19.98783630      14.71117820        1
Au      12.98248050      22.48631584      14.71117820        1
Au      15.86747617      22.48631584      14.71117820        1
Au      15.86747617      25.81762189      10.00000000        3
Au      18.75247184      25.81762189      10.00000000        3
Au      17.30997400      28.31610143      10.00000000        3
Au      20.19496967      28.31610143      10.00000000        3
Au      49.04492634      26.65044840      12.35558910        2
Au      17.30997400      26.65044840      12.35558910        2
Au      50.48742418      29.14892794      12.35558910        2
Au      18.75247184      29.14892794      12.35558910        2
Au      14.42497834      24.98479538      14.71117820        1
Au      17.30997400      24.98479538      14.71117820        1
Au      15.86747617      27.48327491      14.71117820        1
Au      18.75247184      27.48327491      14.71117820        1
Au       7.21248917       0.83282651      10.00000000        3
Au      10.09748484       0.83282651      10.00000000        3
Au       8.65498700       3.33130605      10.00000000        3
Au      11.53998267       3.33130605      10.00000000        3
Au       5.76999133       1.66565303      12.35558910        2
Au       8.65498700       1.66565303      12.35558910        2
Au       7.21248917       4.16413256      12.35558910        2
Au      10.09748484       4.16413256      12.35558910        2
Au       5.76999133       0.00000000      14.71117820        1
Au       8.65498700       0.00000000      14.71117820        1
Au       7.21248917       2.49847954      14.71117820        1
Au      10.09748484       2.49847954      14.71117820        1
Au      10.09748484       5.82978559      10.00000000        3
Au      12.98248050       5.82978559      10.00000000        3
Au      11.53998267       8.32826513      10.00000000        3
Au      14.42497834       8.32826513      10.00000000        3
Au       8.65498700       6.66261210      12.35558910        2
Au      11.53998267       6.66261210      12.35558910        2
Au      10.09748484       9.16109164      12.35558910        2
Au      12.98248050       9.16109164      12.35558910        2
Au       8.65498700       4.99695908      14.71117820        1
Au      11.53998267       4.99695908      14.71117820        1
Au      10.09748484       7.49543861      14.71117820        1
Au      12.98248050       7.49543861      14.71117820        1
Au      12.98248050      10.82674466      10.00000000        3
Au      15.86747617      10.82674466      10.00000000        3
Au      14.42497834      13.32522420      10.00000000        3
Au      17.30997400      13.32522420      10.00000000        3
Au      11.53998267      11.65957118      12.35558910        2
Au      14.42497834      11.65957118      12.35558910        2
Au      12.98248050      14.15805071      12.35558910        2
Au      15.86747617      14.15805071      12.35558910        2
Au      11.53998267       9.99391815      14.71117820        1
Au      14.42497834       9.99391815      14.71117820        1
Au      12.98248050      12.49239769      14.71117820        1
Au      15.86747617      12.49239769      14.71117820        1
Au      15.86747617      15.82370374      10.00000000        3
Au      18.75247184      15.82370374      10.00000000        3
Au      17.30997400      18.32218328      10.00000000        3
Au      20.19496967      18.32218328      10.00000000        3
Au      14.42497834      16.65653025      12.35558910        2
Au      17.30997400      16.65653025      12.35558910        2
Au      15.86747617      19.15500979      12.35558910        2
Au      18.75247184      19.15500979      12.35558910        2
Au      14.42497834      14.99087723      14.71117820        1
Au      17.30997400      14.99087723      14.71117820        1
Au      15.86747617      17.48935676      14.71117820        1
Au      18.75247184      17.48935676      14.71117820        1
Au      18.75247184      20.82066281      10.00000000        3
Au      21.63746750      20.82066281      10.00000000        3
Au      20.19496967      23.31914235      10.00000000        3
Au      23.07996534      23.31914235      10.00000000        3
Au      17.30997400      21.65348933      12.35558910        2
Au      20.19496967      21.65348933      12.35558910        2
Au      18.75247184      24.15196886      12.35558910        2
Au      21.63746750      24.15196886      12.35558910        2
Au      17.30997400      19.98783630      14.71117820        1
Au      20.19496967      19.98783630      14.71117820        1
Au      18.75247184      22.48631584      14.71117820        1
Au      21.63746750      22.48631584      14.71117820        1
Au      21.63746750      25.81762189      10.00000000        3
Au      24.52246317      25.81762189      10.00000000        3
Au      23.07996534      28.31610143      10.00000000        3
Au      25.96496101      28.31610143      10.00000000        3
Au      20.19496967      26.65044840      12.35558910        2
Au      23.07996534      26.65044840      12.35558910        2
Au      21.63746750      29.14892794      12.35558910        2
Au      24.52246317      29.14892794      12.35558910        2
Au      20.19496967      24.98479538      14.71117820        1
Au      23.07996534      24.98479538      14.71117820        1
Au      21.63746750      27.48327491      14.71117820        1
Au      24.52246317      27.48327491      14.71117820        1
Au      12.98248050       0.83282651      10.00000000        3
Au      15.86747617       0.83282651      10.00000000        3
Au      14.42497834       3.33130605      10.00000000        3
Au      17.30997400       3.33130605      10.00000000        3
Au      11.53998267       1.66565303      12.35558910        2
Au      14.42497834       1.66565303      12.35558910        2
Au      12.98248050       4.16413256      12.35558910        2
Au      15.86747617       4.16413256      12.35558910        2
Au      11.53998267       0.00000000      14.71117820        1
Au      14.42497834       0.00000000      14.71117820        1
Au      12.98248050       2.49847954      14.71117820        1
Au      15.86747617       2.49847954      14.71117820        1
Au      15.86747617       5.82978559      10.00000000        3
Au      18.75247184       5.82978559      10.00000000        3
Au      17.30997400       8.32826513      10.00000000        3
Au      20.19496967       8.32826513      10.00000000        3
Au      14.42497834       6.66261210      12.35558910        2
Au      17.30997400       6.66261210      12.35558910        2
Au      15.86747617       9.16109164      12.35558910        2
Au      18.75247184       9.16109164      12.35558910        2
Au      14.42497834       4.99695908      14.71117820        1
Au      17.30997400       4.99695908      14.71117820        1
Au      15.86747617       7.49543861      14.71117820        1
Au      18.75247184       7.49543861      14.71117820        1
Au      18.75247184      10.82674466      10.00000000        3
Au      21.63746750      10.82674466      10.00000000        3
Au      20.19496967      13.32522420      10.00000000        3
Au      23.07996534      13.32522420      10.00000000        3
Au      17.30997400      11.65957118      12.35558910        2
Au      20.19496967      11.65957118      12.35558910        2
Au      18.75247184      14.15805071      12.35558910        2
Au      21.63746750      14.15805071      12.35558910        2
Au      17.30997400       9.99391815      14.71117820        1
Au      20.19496967       9.99391815      14.71117820        1
Au      18.75247184      12.49239769      14.71117820        1
Au      21.63746750      12.49239769      14.71117820        1
Au      21.63746750      15.82370374      10.00000000        3
Au      24.52246317      15.82370374      10.00000000        3
Au      23.07996534      18.32218328      10.00000000        3
Au      25.96496101      18.32218328      10.00000000        3
Au      20.19496967      16.65653025      12.35558910        2
Au      23.07996534      16.65653025      12.35558910        2
Au      21.63746750      19.15500979      12.35558910        2
Au      24.52246317      19.15500979      12.35558910        2
Au      20.19496967      14.99087723      14.71117820        1
Au      23.07996534      14.99087723      14.71117820        1
Au      21.63746750      17.48935676      14.71117820        1
Au      24.52246317      17.48935676      14.71117820        1
Au      24.52246317      20.82066281      10.00000000        3
Au      27.40745884      20.82066281      10.00000000        3
Au      25.96496101      23.31914235      10.00000000        3
Au      28.84995667      23.31914235      10.00000000        3
Au      23.07996534      21.65348933      12.35558910        2
Au      25.96496101      21.65348933      12.35558910        2
Au      24.52246317      24.15196886      12.35558910        2
Au      27.40745884      24.15196886      12.35558910        2
Au      23.07996534      19.98783630      14.71117820        1
Au      25.96496101      19.98783630      14.71117820        1
Au      24.52246317      22.48631584      14.71117820        1
Au      27.40745884      22.48631584      14.71117820        1
Au      27.40745884      25.81762189      10.00000000        3
Au      30.29245451      25.81762189      10.00000000        3
Au      28.84995667      28.31610143      10.00000000        3
Au      31.73495234      28.31610143      10.00000000        3
Au      25.96496101      26.65044840      12.35558910        2
Au      28.84995667      26.65044840      12.35558910        2
Au      27.40745884      29.14892794      12.35558910        2
Au      30.29245451      29.14892794      12.35558910        2
Au      25.96496101      24.98479538      14.71117820        1
Au      28.84995667      24.98479538      14.71117820        1
Au      27.40745884      27.48327491      14.71117820        1
Au      30.29245451      27.48327491      14.71117820        1
Au      18.75247184       0.83282651      10.00000000        3
Au      21.63746750       0.83282651      10.00000000        3
Au      20.19496967       3.33130605      10.00000000        3
Au      23.07996534       3.33130605      10.00000000        3
Au      17.30997400       1.66565303      12.35558910        2
Au      20.19496967       1.66565303      12.35558910        2
Au      18.75247184       4.16413256      12.35558910        2
Au      21.63746750       4.16413256      12.35558910        2
Au      17.30997400       0.00000000      14.71117820        1
Au      20.19496967       0.00000000      14.71117820        1
Au      18.75247184       2.49847954      14.71117820        1
Au      21.63746750       2.49847954      14.71117820        1
Au      21.63746750       5.82978559      10.00000000        3
Au      24.52246317       5.82978559      10.00000000        3
Au      23.07996534       8.32826513      10.00000000        3
Au      25.96496101       8.32826513      10.00000000        3
Au      20.19496967       6.66261210      12.35558910        2
Au      23.07996534       6.66261210      12.35558910        2
Au      21.63746750       9.16109164      12.35558910        2
Au      24.52246317       9.16109164      12.35558910        2
Au      20.19496967       4.99695908      14.71117820        1
Au      23.07996534       4.99695908      14.71117820        1
Au      21.63746750       7.49543861      14.71117820        1
Au      24.52246317       7.49543861      14.71117820        1
Au      24.52246317      10.82674466      10.00000000        3
Au      27.40745884      10.82674466      10.00000000        3
Au      25.96496101      13.32522420      10.00000000        3
Au      28.84995667      13.32522420      10.00000000        3
Au      23.07996534      11.65957118      12.35558910        2
Au      25.96496101      11.65957118      12.35558910        2
Au      24.52246317      14.15805071      12.35558910        2
Au      27.40745884      14.15805071      12.35558910        2
Au      23.07996534       9.99391815      14.71117820        1
Au      25.96496101       9.99391815      14.71117820        1
Au      24.52246317      12.49239769      14.71117820        1
Au      27.40745884      12.49239769      14.71117820        1
Au      27.40745884      15.82370374      10.00000000        3
Au      30.29245451      15.82370374      10.00000000        3
Au      28.84995667      18.32218328      10.00000000        3
Au      31.73495234      18.32218328      10.00000000        3
Au      25.96496101      16.65653025      12.35558910        2
Au      28.84995667      16.65653025      12.35558910        2
Au      27.40745884      19.15500979      12.35558910        2
Au      30.29245451      19.15500979      12.35558910        2
Au      25.96496101      14.99087723      14.71117820        1
Au      28.84995667      14.99087723      14.71117820        1
Au      27.40745884      17.48935676      14.71117820        1
Au      30.29245451      17.48935676      14.71117820        1
Au      30.29245451      20.82066281      10.00000000        3
Au      33.17745017      20.82066281      10.00000000        3
Au      31.73495234      23.31914235      10.00000000        3
Au      34.61994801      23.31914235      10.00000000        3
Au      28.84995667      21.65348933      12.35558910        2
Au      31.73495234      21.65348933      12.35558910        2
Au      30.29245451      24.15196886      12.35558910        2
Au      33.17745017      24.15196886      12.35558910        2
Au      28.84995667      19.98783630      14.71117820        1
Au      31.73495234      19.98783630      14.71117820        1
Au      30.29245451      22.48631584      14.71117820        1
Au      33.17745017      22.48631584      14.71117820        1
Au      33.17745017      25.81762189      10.00000000        3
Au      36.06244584      25.81762189      10.00000000        3
Au      34.61994801      28.31610143      10.00000000        3
Au      37.50494367      28.31610143      10.00000000        3
Au      31.73495234      26.65044840      12.35558910        2
Au      34.61994801      26.65044840      12.35558910        2
Au      33.17745017      29.14892794      12.35558910        2
Au      36.06244584      29.14892794      12.35558910        2
Au      31.73495234      24.98479538      14.71117820        1
Au      34.61994801      24.98479538      14.71117820        1
Au      33.17745017      27.48327491      14.71117820        1
Au      36.06244584      27.48327491      14.71117820        1
Au      24.52246317       0.83282651      10.00000000        3
Au      27.40745884       0.83282651      10.00000000        3
Au      25.96496101       3.33130605      10.00000000        3
Au      28.84995667       3.33130605      10.00000000        3
Au      23.07996534       1.66565303      12.35558910        2
Au      25.96496101       1.66565303      12.35558910        2
Au      24.52246317       4.16413256      12.35558910        2
Au      27.40745884       4.16413256      12.35558910        2
Au      23.07996534       0.00000000      14.71117820        1
Au      25.96496101       0.00000000      14.71117820        1
Au      24.52246317       2.49847954      14.71117820        1
Au      27.40745884       2.49847954      14.71117820        1
Au      27.40745884       5.82978559      10.00000000        3
Au      30.29245451       5.82978559      10.00000000        3
Au      28.84995667       8.32826513      10.00000000        3
Au      31.73495234       8.32826513      10.00000000        3
Au      25.96496101       6.66261210      12.35558910        2
Au      28.84995667       6.66261210      12.35558910        2
Au      27.40745884       9.16109164      12.35558910        2
Au      30.29245451       9.16109164      12.35558910        2
Au      25.96496101       4.99695908      14.71117820        1
Au      28.84995667       4.99695908      14.71117820        1
Au      27.40745884       7.49543861      14.71117820        1
Au      30.29245451       7.49543861      14.71117820        1
Au      30.29245451      10.82674466      10.00000000        3
Au      33.17745017      10.82674466      10.00000000        3
Au      31.73495234      13.32522420      10.00000000        3
Au      34.61994801      13.32522420      10.00000000        3
Au      28.84995667      11.65957118      12.35558910        2
Au      31.73495234      11.65957118      12.35558910        2
Au      30.29245451      14.15805071      12.35558910        2
Au      33.17745017      14.15805071      12.35558910        2
Au      28.84995667       9.99391815      14.71117820        1
Au      31.73495234       9.99391815      14.71117820        1
Au      30.29245451      12.49239769      14.71117820        1
Au      33.17745017      12.49239769      14.71117820        1
Au      33.17745017      15.82370374      10.00000000        3
Au      36.06244584      15.82370374      10.00000000        3
Au      34.61994801      18.32218328      10.00000000        3
Au      37.50494367      18.32218328      10.00000000        3
Au      31.73495234      16.65653025      12.35558910        2
Au      34.61994801      16.65653025      12.35558910        2
Au      33.17745017      19.15500979      12.35558910        2
Au      36.06244584      19.15500979      12.35558910        2
Au      31.73495234      14.99087723      14.71117820        1
Au      34.61994801      14.99087723      14.71117820        1
Au      33.17745017      17.48935676      14.71117820        1
Au      36.06244584      17.48935676      14.71117820        1
Au      36.06244584      20.82066281      10.00000000        3
Au      38.94744151      20.82066281      10.00000000        3
Au      37.50494367      23.31914235      10.00000000        3
Au      40.38993934      23.31914235      10.00000000        3
Au      34.61994801      21.65348933      12.35558910        2
Au      37.50494367      21.65348933      12.35558910        2
Au      36.06244584      24.15196886      12.35558910        2
Au      38.94744151      24.15196886      12.35558910        2
Au      34.61994801      19.98783630      14.71117820        1
Au      37.50494367      19.98783630      14.71117820        1
Au      36.06244584      22.48631584      14.71117820        1
Au      38.94744151      22.48631584      14.71117820        1
Au      38.94744151      25.81762189      10.00000000        3
Au      41.83243717      25.81762189      10.00000000        3
Au      40.38993934      28.31610143      10.00000000        3
Au      43.27493501      28.31610143      10.00000000        3
Au      37.50494367      26.65044840      12.35558910        2
Au      40.38993934      26.65044840      12.35558910        2
Au      38.94744151      29.14892794      12.35558910        2
Au      41.83243717      29.14892794      12.35558910        2
Au      37.50494367      24.98479538      14.71117820        1
Au      40.38993934      24.98479538      14.71117820        1
Au      38.94744151      27.48327491      14.71117820        1
Au      41.83243717      27.48327491      14.71117820        1
Au      30.29245451       0.83282651      10.00000000        3
Au      33.17745017       0.83282651      10.00000000        3
Au      31.73495234       3.33130605      10.00000000        3
Au      34.61994801       3.33130605      10.00000000        3
Au      28.84995667       1.66565303      12.35558910        2
Au      31.73495234       1.66565303      12.35558910        2
Au      30.29245451       4.16413256      12.35558910        2
Au      33.17745017       4.16413256      12.35558910        2
Au      28.84995667       0.00000000      14.71117820        1
Au      31.73495234       0.00000000      14.71117820        1
Au      30.29245451       2.49847954      14.71117820        1
Au      33.17745017       2.49847954      14.71117820        1
Au      33.17745017       5.82978559      10.00000000        3
Au      36.06244584       5.82978559      10.00000000        3
Au      34.61994801       8.32826513      10.00000000        3
Au      37.50494367       8.32826513      10.00000000        3
Au      31.73495234       6.66261210      12.35558910        2
Au      34.61994801       6.66261210      12.35558910        2
Au      33.17745017       9.16109164      12.35558910        2
Au      36.06244584       9.16109164      12.35558910        2
Au      31.73495234       4.99695908      14.71117820        1
Au      34.61994801       4.99695908      14.71117820        1
Au      33.17745017       7.49543861      14.71117820        1
Au      36.06244584       7.49543861      14.71117820        1
Au      36.06244584      10.82674466      10.00000000        3
Au      38.94744151      10.82674466      10.00000000        3
Au      37.50494367      13.32522420      10.00000000        3
Au      40.38993934      13.32522420      10.00000000        3
Au      34.61994801      11.65957118      12.35558910        2
Au      37.50494367      11.65957118      12.35558910        2
Au      36.06244584      14.15805071      12.35558910        2
Au      38.94744151      14.15805071      12.35558910        2
Au      34.61994801       9.99391815      14.71117820        1
Au      37.50494367       9.99391815      14.71117820        1
Au      36.06244584      12.49239769      14.71117820        1
Au      38.94744151      12.49239769      14.71117820        1
Au      38.94744151      15.82370374      10.00000000        3
Au      41.83243717      15.82370374      10.00000000        3
Au      40.38993934      18.32218328      10.00000000        3
Au      43.27493501      18.32218328      10.00000000        3
Au      37.50494367      16.65653025      12.35558910        2
Au      40.38993934      16.65653025      12.35558910        2
Au      38.94744151      19.15500979      12.35558910        2
Au      41.83243717      19.15500979      12.35558910        2
Au      37.50494367      14.99087723      14.71117820        1
Au      40.38993934      14.99087723      14.71117820        1
Au      38.94744151      17.48935676      14.71117820        1
Au      41.83243717      17.48935676      14.71117820        1
Au      41.83243717      20.82066281      10.00000000        3
Au      44.71743284      20.82066281      10.00000000        3
Au      43.27493501      23.31914235      10.00000000        3
Au      46.15993068      23.31914235      10.00000000        3
Au      40.38993934      21.65348933      12.35558910        2
Au      43.27493501      21.65348933      12.35558910        2
Au      41.83243717      24.15196886      12.35558910        2
Au      44.71743284      24.15196886      12.35558910        2
Au      40.38993934      19.98783630      14.71117820        1
Au      43.27493501      19.98783630      14.71117820        1
Au      41.83243717      22.48631584      14.71117820        1
Au      44.71743284      22.48631584      14.71117820        1
Au      44.71743284      25.81762189      10.00000000        3
Au      47.60242851      25.81762189      10.00000000        3
Au      46.15993068      28.31610143      10.00000000        3
Au      49.04492634      28.31610143      10.00000000        3
Au      43.27493501      26.65044840      12.35558910        2
Au      46.15993068      26.65044840      12.35558910        2
Au      44.71743284      29.14892794      12.35558910        2
Au      47.60242851      29.14892794      12.35558910        2
Au      43.27493501      24.98479538      14.71117820        1
Au      46.15993068      24.98479538      14.71117820        1
Au      44.71743284      27.48327491      14.71117820        1
Au      47.60242851      27.48327491      14.71117820        1
