# generated using pymatgen
data_ZnS
_symmetry_space_group_name_H-M   'P 1'
_cell_length_a   7.61888482
_cell_length_b   7.61888585
_cell_length_c   60.95107830
_cell_angle_alpha   119.99998508
_cell_angle_beta   59.99999977
_cell_angle_gamma   90.00000000
_symmetry_Int_Tables_number   1
_chemical_formula_structural   ZnS
_chemical_formula_sum   'Zn32 S32'
_cell_volume   2501.78144171
_cell_formula_units_Z   32
loop_
 _symmetry_equiv_pos_site_id
 _symmetry_equiv_pos_as_xyz
  1  'x, y, z'
loop_
 _atom_site_type_symbol
 _atom_site_label
 _atom_site_symmetry_multiplicity
 _atom_site_fract_x
 _atom_site_fract_y
 _atom_site_fract_z
 _atom_site_occupancy
  Zn  Zn0  1  0.00000000  0.00000000  0.04687500  1
  Zn  Zn1  1  0.00000000  0.00000000  0.54687500  1
  Zn  Zn2  1  0.00000000  0.50000000  0.04687500  1
  Zn  Zn3  1  0.00000000  0.50000000  0.54687500  1
  Zn  Zn4  1  0.50000000  0.00000000  0.04687500  1
  Zn  Zn5  1  0.50000000  0.00000000  0.54687500  1
  Zn  Zn6  1  0.50000000  0.50000000  0.04687500  1
  Zn  Zn7  1  0.50000000  0.50000000  0.54687500  1
  S  S8  1  0.37500000  0.37500000  0.01562500  1
  S  S9  1  0.37500000  0.37500000  0.51562500  1
  S  S10  1  0.37500000  0.87500000  0.01562500  1
  S  S11  1  0.37500000  0.87500000  0.51562500  1
  S  S12  1  0.87500000  0.37500000  0.01562500  1
  S  S13  1  0.87500000  0.37500000  0.51562500  1
  S  S14  1  0.87500000  0.87500000  0.01562500  1
  S  S15  1  0.87500000  0.87500000  0.51562500  1
  Zn  Zn16  1  0.00000000  0.00000000  0.10937500  1
  Zn  Zn17  1  0.00000000  0.00000000  0.60937500  1
  Zn  Zn18  1  0.00000000  0.50000000  0.10937500  1
  Zn  Zn19  1  0.00000000  0.50000000  0.60937500  1
  Zn  Zn20  1  0.50000000  0.00000000  0.10937500  1
  Zn  Zn21  1  0.50000000  0.00000000  0.60937500  1
  Zn  Zn22  1  0.50000000  0.50000000  0.10937500  1
  Zn  Zn23  1  0.50000000  0.50000000  0.60937500  1
  S  S24  1  0.37500000  0.37500000  0.07812500  1
  S  S25  1  0.37500000  0.37500000  0.57812500  1
  S  S26  1  0.37500000  0.87500000  0.07812500  1
  S  S27  1  0.37500000  0.87500000  0.57812500  1
  S  S28  1  0.87500000  0.37500000  0.07812500  1
  S  S29  1  0.87500000  0.37500000  0.57812500  1
  S  S30  1  0.87500000  0.87500000  0.07812500  1
  S  S31  1  0.87500000  0.87500000  0.57812500  1
  Zn  Zn32  1  0.00000000  0.00000000  0.17187500  1
  Zn  Zn33  1  0.00000000  0.00000000  0.67187500  1
  Zn  Zn34  1  0.00000000  0.50000000  0.17187500  1
  Zn  Zn35  1  0.00000000  0.50000000  0.67187500  1
  Zn  Zn36  1  0.50000000  0.00000000  0.17187500  1
  Zn  Zn37  1  0.50000000  0.00000000  0.67187500  1
  Zn  Zn38  1  0.50000000  0.50000000  0.17187500  1
  Zn  Zn39  1  0.50000000  0.50000000  0.67187500  1
  S  S40  1  0.37500000  0.37500000  0.14062500  1
  S  S41  1  0.37500000  0.37500000  0.64062500  1
  S  S42  1  0.37500000  0.87500000  0.14062500  1
  S  S43  1  0.37500000  0.87500000  0.64062500  1
  S  S44  1  0.87500000  0.37500000  0.14062500  1
  S  S45  1  0.87500000  0.37500000  0.64062500  1
  S  S46  1  0.87500000  0.87500000  0.14062500  1
  S  S47  1  0.87500000  0.87500000  0.64062500  1
  Zn  Zn48  1  0.00000000  0.00000000  0.23437500  1
  Zn  Zn49  1  0.00000000  0.00000000  0.73437500  1
  Zn  Zn50  1  0.00000000  0.50000000  0.23437500  1
  Zn  Zn51  1  0.00000000  0.50000000  0.73437500  1
  Zn  Zn52  1  0.50000000  0.00000000  0.23437500  1
  Zn  Zn53  1  0.50000000  0.00000000  0.73437500  1
  Zn  Zn54  1  0.50000000  0.50000000  0.23437500  1
  Zn  Zn55  1  0.50000000  0.50000000  0.73437500  1
  S  S56  1  0.37500000  0.37500000  0.20312500  1
  S  S57  1  0.37500000  0.37500000  0.70312500  1
  S  S58  1  0.37500000  0.87500000  0.20312500  1
  S  S59  1  0.37500000  0.87500000  0.70312500  1
  S  S60  1  0.87500000  0.37500000  0.20312500  1
  S  S61  1  0.87500000  0.37500000  0.70312500  1
  S  S62  1  0.87500000  0.87500000  0.20312500  1
  S  S63  1  0.87500000  0.87500000  0.70312500  1
