# generated using pymatgen
data_ZnS
_symmetry_space_group_name_H-M   'P 1'
_cell_length_a   3.80944239
_cell_length_b   7.61888704
_cell_length_c   7.61888482
_cell_angle_alpha   60.00000953
_cell_angle_beta   59.99999977
_cell_angle_gamma   59.99999943
_symmetry_Int_Tables_number   1
_chemical_formula_structural   ZnS
_chemical_formula_sum   'Zn4 S4'
_cell_volume   156.36134011
_cell_formula_units_Z   4
loop_
 _symmetry_equiv_pos_site_id
 _symmetry_equiv_pos_as_xyz
  1  'x, y, z'
loop_
 _atom_site_type_symbol
 _atom_site_label
 _atom_site_symmetry_multiplicity
 _atom_site_fract_x
 _atom_site_fract_y
 _atom_site_fract_z
 _atom_site_occupancy
  Zn  Zn0  1  0.00000000  0.00000000  0.00000000  1
  Zn  Zn1  1  0.00000000  0.00000000  0.50000000  1
  Zn  Zn2  1  0.00000000  0.50000000  0.00000000  1
  Zn  Zn3  1  0.00000000  0.50000000  0.50000000  1
  S  S4  1  0.25000000  0.12500000  0.12500000  1
  S  S5  1  0.25000000  0.12500000  0.62500000  1
  S  S6  1  0.25000000  0.62500000  0.12500000  1
  S  S7  1  0.25000000  0.62500000  0.62500000  1
